
     RDKit          3D

 39 41  0  0  0  0  0  0  0  0999 V2000
    1.9504    3.0219   -0.2348 C   0  0  0  0  0  0  0  0  0  0  0  0
    0.8593    2.0113    0.1446 C   0  0  0  0  0  0  0  0  0  0  0  0
   -0.5371    2.5543   -0.2531 C   0  0  0  0  0  0  0  0  0  0  0  0
   -1.6505    1.4936   -0.3027 C   0  0  0  0  0  0  0  0  0  0  0  0
   -1.6698    0.6016    0.9607 C   0  0  0  0  0  0  0  0  0  0  0  0
   -0.5461   -0.4469    1.1102 C   0  0  0  0  0  0  0  0  0  0  0  0
   -1.9877   -0.8975    0.8219 C   0  0  0  0  0  0  0  0  0  0  0  0
   -2.7308   -1.4996    2.0191 C   0  0  0  0  0  0  0  0  0  0  0  0
   -2.3678   -1.4636   -0.5592 C   0  0  0  0  0  0  0  0  0  0  0  0
    0.4870   -0.4691    0.0030 C   0  0  0  0  0  0  0  0  0  0  0  0
    1.1265    0.6225   -0.4236 C   0  0  0  0  0  0  0  0  0  0  0  0
    2.1825    0.2830   -1.4252 C   0  0  0  0  0  0  0  0  0  0  0  0
    1.9954   -1.2142   -1.6824 C   0  0  0  0  0  0  0  0  0  0  0  0
    1.0813   -1.7232   -0.5570 C   0  0  0  0  0  0  0  0  0  0  0  0
    1.8718   -2.4752    0.5197 C   0  0  0  0  0  0  0  0  0  0  0  0
    1.9956    3.1620   -1.3359 H   0  0  0  0  0  0  0  0  0  0  0  0
    1.7392    4.0047    0.2384 H   0  0  0  0  0  0  0  0  0  0  0  0
    2.9403    2.6734    0.1292 H   0  0  0  0  0  0  0  0  0  0  0  0
    0.8883    1.9269    1.2542 H   0  0  0  0  0  0  0  0  0  0  0  0
   -0.8292    3.3478    0.4696 H   0  0  0  0  0  0  0  0  0  0  0  0
   -0.4826    3.0310   -1.2569 H   0  0  0  0  0  0  0  0  0  0  0  0
   -2.6311    2.0101   -0.3733 H   0  0  0  0  0  0  0  0  0  0  0  0
   -1.5325    0.9262   -1.2441 H   0  0  0  0  0  0  0  0  0  0  0  0
   -1.9512    1.0839    1.9218 H   0  0  0  0  0  0  0  0  0  0  0  0
   -0.1815   -0.5602    2.1536 H   0  0  0  0  0  0  0  0  0  0  0  0
   -2.4239   -1.0361    2.9816 H   0  0  0  0  0  0  0  0  0  0  0  0
   -2.5216   -2.5884    2.0749 H   0  0  0  0  0  0  0  0  0  0  0  0
   -3.8232   -1.3501    1.8899 H   0  0  0  0  0  0  0  0  0  0  0  0
   -3.3676   -1.0786   -0.8491 H   0  0  0  0  0  0  0  0  0  0  0  0
   -2.4249   -2.5706   -0.4984 H   0  0  0  0  0  0  0  0  0  0  0  0
   -1.6497   -1.2216   -1.3643 H   0  0  0  0  0  0  0  0  0  0  0  0
    3.1883    0.4747   -0.9937 H   0  0  0  0  0  0  0  0  0  0  0  0
    2.0441    0.8681   -2.3595 H   0  0  0  0  0  0  0  0  0  0  0  0
    2.9745   -1.7411   -1.7170 H   0  0  0  0  0  0  0  0  0  0  0  0
    1.4862   -1.3575   -2.6612 H   0  0  0  0  0  0  0  0  0  0  0  0
    0.2977   -2.3940   -0.9669 H   0  0  0  0  0  0  0  0  0  0  0  0
    2.3459   -3.3780    0.0796 H   0  0  0  0  0  0  0  0  0  0  0  0
    1.1901   -2.8040    1.3328 H   0  0  0  0  0  0  0  0  0  0  0  0
    2.6643   -1.8271    0.9534 H   0  0  0  0  0  0  0  0  0  0  0  0
  1  2  1  0
  2  3  1  0
  3  4  1  0
  4  5  1  0
  5  6  1  0
  6  7  1  0
  7  8  1  0
  7  9  1  0
  6 10  1  0
 10 11  2  0
 11 12  1  0
 12 13  1  0
 13 14  1  0
 14 15  1  0
 11  2  1  0
  7  5  1  0
 14 10  1  0
  1 16  1  0
  1 17  1  0
  1 18  1  0
  2 19  1  0
  3 20  1  0
  3 21  1  0
  4 22  1  0
  4 23  1  0
  5 24  1  0
  6 25  1  0
  8 26  1  0
  8 27  1  0
  8 28  1  0
  9 29  1  0
  9 30  1  0
  9 31  1  0
 12 32  1  0
 12 33  1  0
 13 34  1  0
 13 35  1  0
 14 36  1  0
 15 37  1  0
 15 38  1  0
 15 39  1  0
M  END
$$$$
