
     RDKit          3D

 26 27  0  0  0  0  0  0  0  0999 V2000
   -1.5916    0.9274    1.3437 C   0  0  0  0  0  0  0  0  0  0  0  0
   -1.6866   -0.0612    0.1710 C   0  0  0  0  0  0  0  0  0  0  0  0
   -2.5580    0.5282   -0.9490 C   0  0  0  0  0  0  0  0  0  0  0  0
   -0.2742   -0.5477   -0.2782 C   0  0  0  0  0  0  0  0  0  0  0  0
    0.4979   -1.5156    0.6372 C   0  0  0  0  0  0  0  0  0  0  0  0
    1.9231   -0.9793    0.7785 C   0  0  0  0  0  0  0  0  0  0  0  0
    1.9845    0.1955   -0.1350 C   0  0  0  0  0  0  0  0  0  0  0  0
    3.0987    0.9004   -0.3493 C   0  0  0  0  0  0  0  0  0  0  0  0
    0.6908    0.5116   -0.7947 C   0  0  0  0  0  0  0  0  0  0  0  0
    0.1483   -0.5421   -1.7520 C   0  0  0  0  0  0  0  0  0  0  0  0
   -1.1384    1.8878    1.0207 H   0  0  0  0  0  0  0  0  0  0  0  0
   -2.6050    1.1372    1.7475 H   0  0  0  0  0  0  0  0  0  0  0  0
   -0.9793    0.5045    2.1670 H   0  0  0  0  0  0  0  0  0  0  0  0
   -2.2259   -0.9588    0.5460 H   0  0  0  0  0  0  0  0  0  0  0  0
   -2.7308   -0.2305   -1.7412 H   0  0  0  0  0  0  0  0  0  0  0  0
   -2.0854    1.4305   -1.3912 H   0  0  0  0  0  0  0  0  0  0  0  0
   -3.5520    0.8177   -0.5457 H   0  0  0  0  0  0  0  0  0  0  0  0
    0.5075   -2.5300    0.1825 H   0  0  0  0  0  0  0  0  0  0  0  0
    0.0188   -1.5919    1.6365 H   0  0  0  0  0  0  0  0  0  0  0  0
    2.6636   -1.7490    0.4704 H   0  0  0  0  0  0  0  0  0  0  0  0
    2.1221   -0.6573    1.8238 H   0  0  0  0  0  0  0  0  0  0  0  0
    4.0245    0.6348    0.1518 H   0  0  0  0  0  0  0  0  0  0  0  0
    3.0935    1.7481   -1.0275 H   0  0  0  0  0  0  0  0  0  0  0  0
    0.2858    1.5445   -0.8222 H   0  0  0  0  0  0  0  0  0  0  0  0
    0.8999   -1.3049   -2.0509 H   0  0  0  0  0  0  0  0  0  0  0  0
   -0.5318   -0.1000   -2.5059 H   0  0  0  0  0  0  0  0  0  0  0  0
  1  2  1  0
  2  3  1  0
  2  4  1  0
  4  5  1  0
  5  6  1  0
  6  7  1  0
  7  8  2  0
  7  9  1  0
  9 10  1  0
  9  4  1  0
 10  4  1  0
  1 11  1  0
  1 12  1  0
  1 13  1  0
  2 14  1  0
  3 15  1  0
  3 16  1  0
  3 17  1  0
  5 18  1  0
  5 19  1  0
  6 20  1  0
  6 21  1  0
  8 22  1  0
  8 23  1  0
  9 24  1  0
 10 25  1  0
 10 26  1  0
M  END
$$$$
