
     RDKit          3D

 26 27  0  0  0  0  0  0  0  0999 V2000
    3.1589    0.8523    0.3915 C   0  0  0  0  0  0  0  0  0  0  0  0
    1.8674    0.3689   -0.1907 C   0  0  0  0  0  0  0  0  0  0  0  0
    1.5802    0.4279   -1.4853 C   0  0  0  0  0  0  0  0  0  0  0  0
    0.2431   -0.1559   -1.7856 C   0  0  0  0  0  0  0  0  0  0  0  0
   -0.3160   -0.5568   -0.4091 C   0  0  0  0  0  0  0  0  0  0  0  0
    0.7687   -0.2333    0.6195 C   0  0  0  0  0  0  0  0  0  0  0  0
    0.4203   -1.6871    0.3218 C   0  0  0  0  0  0  0  0  0  0  0  0
   -1.7755   -0.1471   -0.0418 C   0  0  0  0  0  0  0  0  0  0  0  0
   -1.9003    1.3676    0.1886 C   0  0  0  0  0  0  0  0  0  0  0  0
   -2.3820   -0.9142    1.1429 C   0  0  0  0  0  0  0  0  0  0  0  0
    3.2823    1.9358    0.1830 H   0  0  0  0  0  0  0  0  0  0  0  0
    4.0059    0.2925   -0.0578 H   0  0  0  0  0  0  0  0  0  0  0  0
    3.1681    0.6950    1.4906 H   0  0  0  0  0  0  0  0  0  0  0  0
    2.2531    0.8265   -2.2382 H   0  0  0  0  0  0  0  0  0  0  0  0
    0.3493   -1.0481   -2.4383 H   0  0  0  0  0  0  0  0  0  0  0  0
   -0.3948    0.6005   -2.2879 H   0  0  0  0  0  0  0  0  0  0  0  0
    0.4127    0.2330    1.5614 H   0  0  0  0  0  0  0  0  0  0  0  0
   -0.0732   -2.1788    1.1827 H   0  0  0  0  0  0  0  0  0  0  0  0
    1.1964   -2.2248   -0.2650 H   0  0  0  0  0  0  0  0  0  0  0  0
   -2.4027   -0.3927   -0.9269 H   0  0  0  0  0  0  0  0  0  0  0  0
   -1.3731    1.6766    1.1150 H   0  0  0  0  0  0  0  0  0  0  0  0
   -2.9704    1.6497    0.2861 H   0  0  0  0  0  0  0  0  0  0  0  0
   -1.4778    1.9338   -0.6670 H   0  0  0  0  0  0  0  0  0  0  0  0
   -2.3972   -2.0036    0.9281 H   0  0  0  0  0  0  0  0  0  0  0  0
   -3.4330   -0.5931    1.3066 H   0  0  0  0  0  0  0  0  0  0  0  0
   -1.8102   -0.7246    2.0758 H   0  0  0  0  0  0  0  0  0  0  0  0
  1  2  1  0
  2  3  2  0
  3  4  1  0
  4  5  1  0
  5  6  1  0
  6  7  1  0
  5  8  1  0
  8  9  1  0
  8 10  1  0
  6  2  1  0
  7  5  1  0
  1 11  1  0
  1 12  1  0
  1 13  1  0
  3 14  1  0
  4 15  1  0
  4 16  1  0
  6 17  1  0
  7 18  1  0
  7 19  1  0
  8 20  1  0
  9 21  1  0
  9 22  1  0
  9 23  1  0
 10 24  1  0
 10 25  1  0
 10 26  1  0
M  END
$$$$
