
     RDKit          3D

 40 41  0  0  0  0  0  0  0  0999 V2000
   -0.1214    3.6874   -0.1880 C   0  0  0  0  0  0  0  0  0  0  0  0
   -0.3815    2.2672   -0.6229 C   0  0  0  0  0  0  0  0  0  0  0  0
   -1.6391    1.7814   -0.4735 C   0  0  0  0  0  0  0  0  0  0  0  0
   -2.1406    0.3988   -0.8534 C   0  0  0  0  0  0  0  0  0  0  0  0
   -2.2370   -0.5936    0.3424 C   0  0  0  0  0  0  0  0  0  0  0  0
   -0.8592   -0.9084    0.9104 C   0  0  0  0  0  0  0  0  0  0  0  0
    0.0996   -1.5420    0.2097 C   0  0  0  0  0  0  0  0  0  0  0  0
    1.4534   -1.8409    0.8131 C   0  0  0  0  0  0  0  0  0  0  0  0
    2.6572   -1.3658   -0.0391 C   0  0  0  0  0  0  0  0  0  0  0  0
    2.8260    0.0595   -0.4706 C   0  0  0  0  0  0  0  0  0  0  0  0
    2.3032   -0.9369   -1.3321 O   0  0  0  0  0  0  0  0  0  0  0  0
    1.7804    1.1125   -0.0502 C   0  0  0  0  0  0  0  0  0  0  0  0
    0.7854    1.4669   -1.1701 C   0  0  0  0  0  0  0  0  0  0  0  0
    3.9138   -2.2365   -0.0473 C   0  0  0  0  0  0  0  0  0  0  0  0
   -2.9111   -1.8989   -0.1364 C   0  0  0  0  0  0  0  0  0  0  0  0
   -3.1163    0.0065    1.4638 C   0  0  0  0  0  0  0  0  0  0  0  0
    0.9310    3.9843   -0.3811 H   0  0  0  0  0  0  0  0  0  0  0  0
   -0.3212    3.7901    0.8997 H   0  0  0  0  0  0  0  0  0  0  0  0
   -0.7838    4.3808   -0.7484 H   0  0  0  0  0  0  0  0  0  0  0  0
   -2.3902    2.4444   -0.0497 H   0  0  0  0  0  0  0  0  0  0  0  0
   -1.5732   -0.0435   -1.6939 H   0  0  0  0  0  0  0  0  0  0  0  0
   -3.1636    0.5418   -1.2661 H   0  0  0  0  0  0  0  0  0  0  0  0
   -0.6413   -0.6096    1.9333 H   0  0  0  0  0  0  0  0  0  0  0  0
   -0.0959   -1.8758   -0.8043 H   0  0  0  0  0  0  0  0  0  0  0  0
    1.5510   -1.4013    1.8292 H   0  0  0  0  0  0  0  0  0  0  0  0
    1.5159   -2.9426    0.9385 H   0  0  0  0  0  0  0  0  0  0  0  0
    3.8193    0.4038   -0.8292 H   0  0  0  0  0  0  0  0  0  0  0  0
    1.2499    0.8085    0.8725 H   0  0  0  0  0  0  0  0  0  0  0  0
    2.3363    2.0330    0.2282 H   0  0  0  0  0  0  0  0  0  0  0  0
    0.4463    0.5598   -1.6947 H   0  0  0  0  0  0  0  0  0  0  0  0
    1.3109    2.0758   -1.9373 H   0  0  0  0  0  0  0  0  0  0  0  0
    4.3484   -2.2638    0.9736 H   0  0  0  0  0  0  0  0  0  0  0  0
    3.6500   -3.2703   -0.3544 H   0  0  0  0  0  0  0  0  0  0  0  0
    4.6810   -1.8486   -0.7516 H   0  0  0  0  0  0  0  0  0  0  0  0
   -2.3743   -2.3368   -1.0042 H   0  0  0  0  0  0  0  0  0  0  0  0
   -3.9586   -1.7052   -0.4540 H   0  0  0  0  0  0  0  0  0  0  0  0
   -2.9292   -2.6532    0.6801 H   0  0  0  0  0  0  0  0  0  0  0  0
   -4.1148    0.2947    1.0694 H   0  0  0  0  0  0  0  0  0  0  0  0
   -3.2648   -0.7319    2.2816 H   0  0  0  0  0  0  0  0  0  0  0  0
   -2.6420    0.9082    1.9071 H   0  0  0  0  0  0  0  0  0  0  0  0
  1  2  1  0
  2  3  2  3
  3  4  1  0
  4  5  1  0
  5  6  1  0
  6  7  2  3
  7  8  1  0
  8  9  1  0
  9 10  1  0
 10 11  1  0
 10 12  1  0
 12 13  1  0
  9 14  1  0
  5 15  1  0
  5 16  1  0
 13  2  1  0
 11  9  1  0
  1 17  1  0
  1 18  1  0
  1 19  1  0
  3 20  1  0
  4 21  1  0
  4 22  1  0
  6 23  1  0
  7 24  1  0
  8 25  1  0
  8 26  1  0
 10 27  1  0
 12 28  1  0
 12 29  1  0
 13 30  1  0
 13 31  1  0
 14 32  1  0
 14 33  1  0
 14 34  1  0
 15 35  1  0
 15 36  1  0
 15 37  1  0
 16 38  1  0
 16 39  1  0
 16 40  1  0
M  END
$$$$
