
     RDKit          3D

 40 41  0  0  0  0  0  0  0  0999 V2000
   -1.0240    3.4323   -0.1617 C   0  0  0  0  0  0  0  0  0  0  0  0
   -0.4264    2.1005    0.2327 C   0  0  0  0  0  0  0  0  0  0  0  0
    0.6827    2.1554    1.0030 C   0  0  0  0  0  0  0  0  0  0  0  0
    1.5790    1.0361    1.3467 C   0  0  0  0  0  0  0  0  0  0  0  0
    2.2689    1.1212    2.3976 O   0  0  0  0  0  0  0  0  0  0  0  0
    1.7586   -0.1357    0.4610 C   0  0  0  0  0  0  0  0  0  0  0  0
    2.9775   -0.4040   -0.0847 C   0  0  0  0  0  0  0  0  0  0  0  0
    4.1317    0.5595    0.0770 C   0  0  0  0  0  0  0  0  0  0  0  0
    3.2176   -1.6565   -0.8955 C   0  0  0  0  0  0  0  0  0  0  0  0
    0.5981   -1.0959    0.3014 C   0  0  0  0  0  0  0  0  0  0  0  0
   -0.7787   -0.4412    0.5627 C   0  0  0  0  0  0  0  0  0  0  0  0
   -1.0422    0.8056   -0.3227 C   0  0  0  0  0  0  0  0  0  0  0  0
   -2.5805    0.8926   -0.3342 C   0  0  0  0  0  0  0  0  0  0  0  0
   -3.1084   -0.5309   -0.2534 C   0  0  0  0  0  0  0  0  0  0  0  0
   -2.0148   -1.3885    0.4197 C   0  0  0  0  0  0  0  0  0  0  0  0
   -1.7559   -2.6652   -0.4198 C   0  0  0  0  0  0  0  0  0  0  0  0
   -2.4318   -1.7717    1.7119 O   0  0  0  0  0  0  0  0  0  0  0  0
   -0.5521    0.6274   -1.6338 O   0  0  0  0  0  0  0  0  0  0  0  0
   -1.7700    3.3355   -0.9748 H   0  0  0  0  0  0  0  0  0  0  0  0
   -1.5111    3.8991    0.7202 H   0  0  0  0  0  0  0  0  0  0  0  0
   -0.2292    4.1121   -0.5379 H   0  0  0  0  0  0  0  0  0  0  0  0
    0.9795    3.1188    1.4043 H   0  0  0  0  0  0  0  0  0  0  0  0
    4.4653    0.5800    1.1352 H   0  0  0  0  0  0  0  0  0  0  0  0
    3.8231    1.5796   -0.2358 H   0  0  0  0  0  0  0  0  0  0  0  0
    5.0026    0.2698   -0.5469 H   0  0  0  0  0  0  0  0  0  0  0  0
    4.2878   -1.7752   -1.1643 H   0  0  0  0  0  0  0  0  0  0  0  0
    2.6351   -1.6153   -1.8396 H   0  0  0  0  0  0  0  0  0  0  0  0
    2.9221   -2.5534   -0.3111 H   0  0  0  0  0  0  0  0  0  0  0  0
    0.6066   -1.5121   -0.7249 H   0  0  0  0  0  0  0  0  0  0  0  0
    0.7417   -1.9321    1.0190 H   0  0  0  0  0  0  0  0  0  0  0  0
   -0.7784   -0.0984    1.6243 H   0  0  0  0  0  0  0  0  0  0  0  0
   -2.9424    1.4511    0.5589 H   0  0  0  0  0  0  0  0  0  0  0  0
   -2.9635    1.3935   -1.2502 H   0  0  0  0  0  0  0  0  0  0  0  0
   -3.3283   -0.8851   -1.2857 H   0  0  0  0  0  0  0  0  0  0  0  0
   -4.0655   -0.5513    0.3130 H   0  0  0  0  0  0  0  0  0  0  0  0
   -1.3966   -2.4151   -1.4395 H   0  0  0  0  0  0  0  0  0  0  0  0
   -2.6959   -3.2476   -0.5289 H   0  0  0  0  0  0  0  0  0  0  0  0
   -1.0141   -3.3216    0.0815 H   0  0  0  0  0  0  0  0  0  0  0  0
   -3.2497   -2.3286    1.6215 H   0  0  0  0  0  0  0  0  0  0  0  0
   -1.0183   -0.1447   -2.0464 H   0  0  0  0  0  0  0  0  0  0  0  0
  1  2  1  0
  2  3  2  0
  3  4  1  0
  4  5  2  0
  4  6  1  0
  6  7  2  3
  7  8  1  0
  7  9  1  0
  6 10  1  0
 10 11  1  0
 11 12  1  0
 12 13  1  0
 13 14  1  0
 14 15  1  0
 15 16  1  0
 15 17  1  0
 12 18  1  0
 12  2  1  0
 15 11  1  0
  1 19  1  0
  1 20  1  0
  1 21  1  0
  3 22  1  0
  8 23  1  0
  8 24  1  0
  8 25  1  0
  9 26  1  0
  9 27  1  0
  9 28  1  0
 10 29  1  0
 10 30  1  0
 11 31  1  0
 13 32  1  0
 13 33  1  0
 14 34  1  0
 14 35  1  0
 16 36  1  0
 16 37  1  0
 16 38  1  0
 17 39  1  0
 18 40  1  0
M  END
$$$$
