
     RDKit          3D

 41 41  0  0  0  0  0  0  0  0999 V2000
   -1.8772   -3.3287   -0.6750 C   0  0  0  0  0  0  0  0  0  0  0  0
   -1.7613   -1.8040   -0.5619 C   0  0  0  0  0  0  0  0  0  0  0  0
   -3.0908   -1.2055   -0.0378 C   0  0  0  0  0  0  0  0  0  0  0  0
   -3.2450    0.3046   -0.2803 C   0  0  0  0  0  0  0  0  0  0  0  0
   -2.4292    1.1414    0.6774 C   0  0  0  0  0  0  0  0  0  0  0  0
   -1.2496    1.7453    0.4003 C   0  0  0  0  0  0  0  0  0  0  0  0
   -0.5348    1.6135   -0.9334 C   0  0  0  0  0  0  0  0  0  0  0  0
    0.9233    1.2519   -0.7855 C   0  0  0  0  0  0  0  0  0  0  0  0
    1.7237    1.8113   -1.5188 O   0  0  0  0  0  0  0  0  0  0  0  0
    1.3820    0.1455    0.1661 C   0  0  0  0  0  0  0  0  0  0  0  0
    0.7910   -1.2274   -0.2527 C   0  0  0  0  0  0  0  0  0  0  0  0
   -0.5818   -1.4729    0.3299 C   0  0  0  0  0  0  0  0  0  0  0  0
   -0.7107   -1.5128    1.5457 O   0  0  0  0  0  0  0  0  0  0  0  0
    2.9298    0.0606    0.3773 C   0  0  0  0  0  0  0  0  0  0  0  0
    3.7224   -0.3485   -0.8784 C   0  0  0  0  0  0  0  0  0  0  0  0
    3.5032    1.3495    0.9883 C   0  0  0  0  0  0  0  0  0  0  0  0
   -0.6715    2.6703    1.4435 C   0  0  0  0  0  0  0  0  0  0  0  0
   -0.9268   -3.7587   -1.0586 H   0  0  0  0  0  0  0  0  0  0  0  0
   -2.6865   -3.6024   -1.3853 H   0  0  0  0  0  0  0  0  0  0  0  0
   -2.1014   -3.7800    0.3158 H   0  0  0  0  0  0  0  0  0  0  0  0
   -1.5773   -1.4170   -1.5873 H   0  0  0  0  0  0  0  0  0  0  0  0
   -3.9323   -1.6984   -0.5734 H   0  0  0  0  0  0  0  0  0  0  0  0
   -3.2313   -1.4357    1.0415 H   0  0  0  0  0  0  0  0  0  0  0  0
   -4.3102    0.5601   -0.0919 H   0  0  0  0  0  0  0  0  0  0  0  0
   -3.0802    0.5644   -1.3445 H   0  0  0  0  0  0  0  0  0  0  0  0
   -2.8630    1.2859    1.6643 H   0  0  0  0  0  0  0  0  0  0  0  0
   -0.9793    0.8515   -1.5950 H   0  0  0  0  0  0  0  0  0  0  0  0
   -0.6252    2.5866   -1.4633 H   0  0  0  0  0  0  0  0  0  0  0  0
    0.9779    0.3930    1.1709 H   0  0  0  0  0  0  0  0  0  0  0  0
    1.4385   -2.0531    0.1139 H   0  0  0  0  0  0  0  0  0  0  0  0
    0.7696   -1.3130   -1.3612 H   0  0  0  0  0  0  0  0  0  0  0  0
    3.1071   -0.7366    1.1345 H   0  0  0  0  0  0  0  0  0  0  0  0
    3.7364    0.4544   -1.6417 H   0  0  0  0  0  0  0  0  0  0  0  0
    4.7757   -0.5639   -0.5984 H   0  0  0  0  0  0  0  0  0  0  0  0
    3.3034   -1.2695   -1.3327 H   0  0  0  0  0  0  0  0  0  0  0  0
    3.4578    2.1955    0.2726 H   0  0  0  0  0  0  0  0  0  0  0  0
    4.5655    1.1930    1.2735 H   0  0  0  0  0  0  0  0  0  0  0  0
    2.9398    1.6258    1.9050 H   0  0  0  0  0  0  0  0  0  0  0  0
   -1.4033    3.4699    1.6859 H   0  0  0  0  0  0  0  0  0  0  0  0
    0.2606    3.1549    1.0838 H   0  0  0  0  0  0  0  0  0  0  0  0
   -0.4389    2.0993    2.3671 H   0  0  0  0  0  0  0  0  0  0  0  0
  1  2  1  0
  2  3  1  0
  3  4  1  0
  4  5  1  0
  5  6  2  3
  6  7  1  0
  7  8  1  0
  8  9  2  0
  8 10  1  0
 10 11  1  0
 11 12  1  0
 12 13  2  0
 10 14  1  0
 14 15  1  0
 14 16  1  0
  6 17  1  0
 12  2  1  0
  1 18  1  0
  1 19  1  0
  1 20  1  0
  2 21  1  0
  3 22  1  0
  3 23  1  0
  4 24  1  0
  4 25  1  0
  5 26  1  0
  7 27  1  0
  7 28  1  0
 10 29  1  0
 11 30  1  0
 11 31  1  0
 14 32  1  0
 15 33  1  0
 15 34  1  0
 15 35  1  0
 16 36  1  0
 16 37  1  0
 16 38  1  0
 17 39  1  0
 17 40  1  0
 17 41  1  0
M  END
$$$$
