
     RDKit          3D

 35 36  0  0  0  0  0  0  0  0999 V2000
    4.1473    0.1830    0.7423 C   0  0  0  0  0  0  0  0  0  0  0  0
    3.0756   -0.7754    0.3350 C   0  0  0  0  0  0  0  0  0  0  0  0
    3.1837   -2.1550    0.2460 C   0  0  0  0  0  0  0  0  0  0  0  0
    2.0379   -2.6654   -0.1599 O   0  0  0  0  0  0  0  0  0  0  0  0
    1.1885   -1.6796   -0.3355 C   0  0  0  0  0  0  0  0  0  0  0  0
    1.7841   -0.4813   -0.0498 C   0  0  0  0  0  0  0  0  0  0  0  0
    1.0758    0.7967   -0.1718 C   0  0  0  0  0  0  0  0  0  0  0  0
    1.6838    1.8866    0.0072 O   0  0  0  0  0  0  0  0  0  0  0  0
   -0.3680    0.7646   -0.6538 C   0  0  0  0  0  0  0  0  0  0  0  0
   -1.0890   -0.6026   -0.2969 C   0  0  0  0  0  0  0  0  0  0  0  0
   -0.2250   -1.7960   -0.8218 C   0  0  0  0  0  0  0  0  0  0  0  0
   -2.4685   -0.6532   -0.9960 C   0  0  0  0  0  0  0  0  0  0  0  0
   -1.2716   -0.7546    1.2150 C   0  0  0  0  0  0  0  0  0  0  0  0
   -1.9428   -1.7687    1.7774 C   0  0  0  0  0  0  0  0  0  0  0  0
   -1.1658    2.0089   -0.2450 C   0  0  0  0  0  0  0  0  0  0  0  0
   -1.0847    2.5433    0.9865 C   0  0  0  0  0  0  0  0  0  0  0  0
   -2.0671    2.6799   -1.2509 C   0  0  0  0  0  0  0  0  0  0  0  0
    5.0612   -0.3665    1.0520 H   0  0  0  0  0  0  0  0  0  0  0  0
    3.7933    0.7987    1.5953 H   0  0  0  0  0  0  0  0  0  0  0  0
    4.3977    0.8461   -0.1117 H   0  0  0  0  0  0  0  0  0  0  0  0
    4.0659   -2.7404    0.4692 H   0  0  0  0  0  0  0  0  0  0  0  0
   -0.2793    0.7902   -1.7626 H   0  0  0  0  0  0  0  0  0  0  0  0
   -0.2047   -1.7881   -1.9333 H   0  0  0  0  0  0  0  0  0  0  0  0
   -0.6463   -2.7728   -0.5011 H   0  0  0  0  0  0  0  0  0  0  0  0
   -2.9251   -1.6622   -0.9162 H   0  0  0  0  0  0  0  0  0  0  0  0
   -3.1704    0.0767   -0.5396 H   0  0  0  0  0  0  0  0  0  0  0  0
   -2.3687   -0.4205   -2.0778 H   0  0  0  0  0  0  0  0  0  0  0  0
   -0.8024   -0.0487    1.8868 H   0  0  0  0  0  0  0  0  0  0  0  0
   -2.0168   -1.8341    2.8581 H   0  0  0  0  0  0  0  0  0  0  0  0
   -2.4138   -2.5418    1.1807 H   0  0  0  0  0  0  0  0  0  0  0  0
   -1.6638    3.4246    1.2467 H   0  0  0  0  0  0  0  0  0  0  0  0
   -0.4215    2.1408    1.7428 H   0  0  0  0  0  0  0  0  0  0  0  0
   -3.1098    2.6988   -0.8689 H   0  0  0  0  0  0  0  0  0  0  0  0
   -1.7252    3.7221   -1.4249 H   0  0  0  0  0  0  0  0  0  0  0  0
   -2.0646    2.1459   -2.2237 H   0  0  0  0  0  0  0  0  0  0  0  0
  1  2  1  0
  2  3  2  0
  3  4  1  0
  4  5  1  0
  5  6  2  0
  6  7  1  0
  7  8  2  0
  7  9  1  0
  9 10  1  0
 10 11  1  0
 10 12  1  0
 10 13  1  0
 13 14  2  0
  9 15  1  0
 15 16  2  0
 15 17  1  0
  6  2  1  0
 11  5  1  0
  1 18  1  0
  1 19  1  0
  1 20  1  0
  3 21  1  0
  9 22  1  0
 11 23  1  0
 11 24  1  0
 12 25  1  0
 12 26  1  0
 12 27  1  0
 13 28  1  0
 14 29  1  0
 14 30  1  0
 16 31  1  0
 16 32  1  0
 17 33  1  0
 17 34  1  0
 17 35  1  0
M  END
$$$$
