
     RDKit          3D

 29 30  0  0  0  0  0  0  0  0999 V2000
    2.1439    1.2187   -0.3521 C   0  0  0  0  0  0  0  0  0  0  0  0
    1.2376    0.0586    0.1138 C   0  0  0  0  0  0  0  0  0  0  0  0
    0.5188   -0.6167   -1.1176 C   0  0  0  0  0  0  0  0  0  0  0  0
   -0.4051    0.4326   -1.7812 C   0  0  0  0  0  0  0  0  0  0  0  0
   -1.3154    1.0644   -0.7002 C   0  0  0  0  0  0  0  0  0  0  0  0
   -1.0642    0.3725    0.6706 C   0  0  0  0  0  0  0  0  0  0  0  0
    0.2939    0.5824    1.0600 O   0  0  0  0  0  0  0  0  0  0  0  0
   -1.3226   -1.1545    0.5209 C   0  0  0  0  0  0  0  0  0  0  0  0
   -0.4122   -1.7342   -0.5887 C   0  0  0  0  0  0  0  0  0  0  0  0
   -1.9833    0.9659    1.7433 C   0  0  0  0  0  0  0  0  0  0  0  0
    2.1367   -0.9604    0.8471 C   0  0  0  0  0  0  0  0  0  0  0  0
    2.7597    1.6007    0.4904 H   0  0  0  0  0  0  0  0  0  0  0  0
    1.5440    2.0786   -0.7131 H   0  0  0  0  0  0  0  0  0  0  0  0
    2.8250    0.8838   -1.1638 H   0  0  0  0  0  0  0  0  0  0  0  0
    1.2456   -1.0245   -1.8541 H   0  0  0  0  0  0  0  0  0  0  0  0
   -1.0288   -0.0509   -2.5653 H   0  0  0  0  0  0  0  0  0  0  0  0
    0.1886    1.2132   -2.3013 H   0  0  0  0  0  0  0  0  0  0  0  0
   -1.0930    2.1509   -0.6165 H   0  0  0  0  0  0  0  0  0  0  0  0
   -2.3817    0.9548   -0.9979 H   0  0  0  0  0  0  0  0  0  0  0  0
   -2.3892   -1.3419    0.2660 H   0  0  0  0  0  0  0  0  0  0  0  0
   -1.1056   -1.6662    1.4842 H   0  0  0  0  0  0  0  0  0  0  0  0
    0.1760   -2.5943   -0.2059 H   0  0  0  0  0  0  0  0  0  0  0  0
   -1.0356   -2.1348   -1.4184 H   0  0  0  0  0  0  0  0  0  0  0  0
   -1.7949    0.4763    2.7226 H   0  0  0  0  0  0  0  0  0  0  0  0
   -3.0505    0.8194    1.4706 H   0  0  0  0  0  0  0  0  0  0  0  0
   -1.7897    2.0543    1.8542 H   0  0  0  0  0  0  0  0  0  0  0  0
    2.7529   -0.4561    1.6224 H   0  0  0  0  0  0  0  0  0  0  0  0
    2.8173   -1.4703    0.1317 H   0  0  0  0  0  0  0  0  0  0  0  0
    1.5315   -1.7224    1.3787 H   0  0  0  0  0  0  0  0  0  0  0  0
  1  2  1  0
  2  3  1  0
  3  4  1  0
  4  5  1  0
  5  6  1  0
  6  7  1  0
  6  8  1  0
  8  9  1  0
  6 10  1  0
  2 11  1  0
  7  2  1  0
  9  3  1  0
  1 12  1  0
  1 13  1  0
  1 14  1  0
  3 15  1  0
  4 16  1  0
  4 17  1  0
  5 18  1  0
  5 19  1  0
  8 20  1  0
  8 21  1  0
  9 22  1  0
  9 23  1  0
 10 24  1  0
 10 25  1  0
 10 26  1  0
 11 27  1  0
 11 28  1  0
 11 29  1  0
M  END
$$$$
