
     RDKit          3D

 36 37  0  0  0  0  0  0  0  0999 V2000
   -2.2726   -2.6520    0.1604 C   0  0  0  0  0  0  0  0  0  0  0  0
   -1.4588   -1.4801    0.6486 C   0  0  0  0  0  0  0  0  0  0  0  0
   -0.1096   -1.5522    0.5294 C   0  0  0  0  0  0  0  0  0  0  0  0
    0.8984   -0.4922    0.9258 C   0  0  0  0  0  0  0  0  0  0  0  0
    1.6933   -0.0476   -0.2798 C   0  0  0  0  0  0  0  0  0  0  0  0
    1.6200    1.1510   -1.0023 C   0  0  0  0  0  0  0  0  0  0  0  0
    0.8271    2.4066   -0.7192 C   0  0  0  0  0  0  0  0  0  0  0  0
   -0.5165    2.1759   -0.0672 C   0  0  0  0  0  0  0  0  0  0  0  0
   -1.3590    1.2596   -0.5913 C   0  0  0  0  0  0  0  0  0  0  0  0
   -2.5764    0.7357    0.1231 C   0  0  0  0  0  0  0  0  0  0  0  0
   -2.1987   -0.2807    1.2141 C   0  0  0  0  0  0  0  0  0  0  0  0
   -0.8909    2.9984    1.1462 C   0  0  0  0  0  0  0  0  0  0  0  0
    2.4468    1.0921   -2.0238 O   0  0  0  0  0  0  0  0  0  0  0  0
    3.0591   -0.0672   -2.0283 C   0  0  0  0  0  0  0  0  0  0  0  0
    2.6375   -0.8137   -0.9505 C   0  0  0  0  0  0  0  0  0  0  0  0
    3.0644   -2.2169   -0.6511 C   0  0  0  0  0  0  0  0  0  0  0  0
   -3.3619   -2.4645    0.2656 H   0  0  0  0  0  0  0  0  0  0  0  0
   -2.0139   -3.5595    0.7460 H   0  0  0  0  0  0  0  0  0  0  0  0
   -2.0580   -2.8375   -0.9136 H   0  0  0  0  0  0  0  0  0  0  0  0
    0.3086   -2.4632    0.1102 H   0  0  0  0  0  0  0  0  0  0  0  0
    0.4584    0.3696    1.4507 H   0  0  0  0  0  0  0  0  0  0  0  0
    1.5963   -0.9460    1.6595 H   0  0  0  0  0  0  0  0  0  0  0  0
    1.4611    3.0700   -0.0945 H   0  0  0  0  0  0  0  0  0  0  0  0
    0.6535    2.9352   -1.6809 H   0  0  0  0  0  0  0  0  0  0  0  0
   -1.0833    0.7546   -1.5138 H   0  0  0  0  0  0  0  0  0  0  0  0
   -3.1632    1.5682    0.5651 H   0  0  0  0  0  0  0  0  0  0  0  0
   -3.2345    0.2356   -0.6202 H   0  0  0  0  0  0  0  0  0  0  0  0
   -1.6340    0.1891    2.0405 H   0  0  0  0  0  0  0  0  0  0  0  0
   -3.1412   -0.6296    1.6883 H   0  0  0  0  0  0  0  0  0  0  0  0
   -1.0064    2.3568    2.0406 H   0  0  0  0  0  0  0  0  0  0  0  0
   -1.8406    3.5409    0.9556 H   0  0  0  0  0  0  0  0  0  0  0  0
   -0.1154    3.7577    1.3772 H   0  0  0  0  0  0  0  0  0  0  0  0
    3.7814   -0.3727   -2.7738 H   0  0  0  0  0  0  0  0  0  0  0  0
    3.0513   -2.4054    0.4419 H   0  0  0  0  0  0  0  0  0  0  0  0
    2.3806   -2.9291   -1.1573 H   0  0  0  0  0  0  0  0  0  0  0  0
    4.0973   -2.3868   -1.0215 H   0  0  0  0  0  0  0  0  0  0  0  0
  1  2  1  0
  2  3  2  3
  3  4  1  0
  4  5  1  0
  5  6  2  0
  6  7  1  0
  7  8  1  0
  8  9  2  3
  9 10  1  0
 10 11  1  0
  8 12  1  0
  6 13  1  0
 13 14  1  0
 14 15  2  0
 15 16  1  0
 11  2  1  0
 15  5  1  0
  1 17  1  0
  1 18  1  0
  1 19  1  0
  3 20  1  0
  4 21  1  0
  4 22  1  0
  7 23  1  0
  7 24  1  0
  9 25  1  0
 10 26  1  0
 10 27  1  0
 11 28  1  0
 11 29  1  0
 12 30  1  0
 12 31  1  0
 12 32  1  0
 14 33  1  0
 16 34  1  0
 16 35  1  0
 16 36  1  0
M  END
$$$$
