
     RDKit          3D

 41 44  0  0  0  0  0  0  0  0999 V2000
   -4.8721   -3.1732    0.9988 C   0  0  0  0  0  0  0  0  0  0  0  0
   -3.7924   -2.9511    0.0974 O   0  0  0  0  0  0  0  0  0  0  0  0
   -3.0097   -1.7870    0.0665 C   0  0  0  0  0  0  0  0  0  0  0  0
   -1.9799   -1.7085   -0.8737 C   0  0  0  0  0  0  0  0  0  0  0  0
   -1.1692   -0.5750   -0.9507 C   0  0  0  0  0  0  0  0  0  0  0  0
   -1.3956    0.5165   -0.0898 C   0  0  0  0  0  0  0  0  0  0  0  0
   -0.4879    1.7213   -0.1607 C   0  0  0  0  0  0  0  0  0  0  0  0
    0.1593    1.8620   -1.5434 C   0  0  0  0  0  0  0  0  0  0  0  0
    0.7983    0.5401   -2.0032 C   0  0  0  0  0  0  0  0  0  0  0  0
   -0.1359   -0.5393   -1.8972 O   0  0  0  0  0  0  0  0  0  0  0  0
    2.0806    0.2457   -1.2489 C   0  0  0  0  0  0  0  0  0  0  0  0
    3.2851    0.8484   -1.6818 C   0  0  0  0  0  0  0  0  0  0  0  0
    4.4463    0.5956   -0.9580 C   0  0  0  0  0  0  0  0  0  0  0  0
    4.4500   -0.1975    0.1414 C   0  0  0  0  0  0  0  0  0  0  0  0
    3.2926   -0.8053    0.6142 C   0  0  0  0  0  0  0  0  0  0  0  0
    2.0952   -0.5764   -0.0874 C   0  0  0  0  0  0  0  0  0  0  0  0
    5.7305   -0.2678    0.6550 O   0  0  0  0  0  0  0  0  0  0  0  0
    6.5846    0.5322   -0.1746 C   0  0  0  0  0  0  0  0  0  0  0  0
    5.7244    1.0653   -1.1912 O   0  0  0  0  0  0  0  0  0  0  0  0
   -2.4146    0.4429    0.8799 C   0  0  0  0  0  0  0  0  0  0  0  0
   -3.2235   -0.7093    0.9457 C   0  0  0  0  0  0  0  0  0  0  0  0
   -2.5937    1.5244    1.7591 O   0  0  0  0  0  0  0  0  0  0  0  0
   -3.5797    1.5805    2.7848 C   0  0  0  0  0  0  0  0  0  0  0  0
   -5.6582   -2.4029    0.8505 H   0  0  0  0  0  0  0  0  0  0  0  0
   -5.3115   -4.1718    0.7989 H   0  0  0  0  0  0  0  0  0  0  0  0
   -4.5056   -3.1496    2.0469 H   0  0  0  0  0  0  0  0  0  0  0  0
   -1.8040   -2.5383   -1.5469 H   0  0  0  0  0  0  0  0  0  0  0  0
   -1.0625    2.6494    0.0483 H   0  0  0  0  0  0  0  0  0  0  0  0
    0.3011    1.6255    0.6156 H   0  0  0  0  0  0  0  0  0  0  0  0
    0.9181    2.6746   -1.5229 H   0  0  0  0  0  0  0  0  0  0  0  0
   -0.6246    2.1536   -2.2768 H   0  0  0  0  0  0  0  0  0  0  0  0
    1.0528    0.6444   -3.0807 H   0  0  0  0  0  0  0  0  0  0  0  0
    3.3135    1.4943   -2.5503 H   0  0  0  0  0  0  0  0  0  0  0  0
    3.3126   -1.4308    1.4969 H   0  0  0  0  0  0  0  0  0  0  0  0
    1.1896   -1.0372    0.2801 H   0  0  0  0  0  0  0  0  0  0  0  0
    7.0325    1.3565    0.4191 H   0  0  0  0  0  0  0  0  0  0  0  0
    7.3741   -0.0993   -0.6332 H   0  0  0  0  0  0  0  0  0  0  0  0
   -4.0124   -0.7691    1.6802 H   0  0  0  0  0  0  0  0  0  0  0  0
   -3.4233    0.7547    3.5106 H   0  0  0  0  0  0  0  0  0  0  0  0
   -4.5959    1.5149    2.3418 H   0  0  0  0  0  0  0  0  0  0  0  0
   -3.4888    2.5467    3.3219 H   0  0  0  0  0  0  0  0  0  0  0  0
  1  2  1  0
  2  3  1  0
  3  4  2  0
  4  5  1  0
  5  6  2  0
  6  7  1  0
  7  8  1  0
  8  9  1  0
  9 10  1  0
  9 11  1  0
 11 12  2  0
 12 13  1  0
 13 14  2  0
 14 15  1  0
 15 16  2  0
 14 17  1  0
 17 18  1  0
 18 19  1  0
  6 20  1  0
 20 21  2  0
 20 22  1  0
 22 23  1  0
 21  3  1  0
 10  5  1  0
 16 11  1  0
 19 13  1  0
  1 24  1  0
  1 25  1  0
  1 26  1  0
  4 27  1  0
  7 28  1  0
  7 29  1  0
  8 30  1  0
  8 31  1  0
  9 32  1  0
 12 33  1  0
 15 34  1  0
 16 35  1  0
 18 36  1  0
 18 37  1  0
 21 38  1  0
 23 39  1  0
 23 40  1  0
 23 41  1  0
M  END
$$$$
