
     RDKit          3D

 39 39  0  0  0  0  0  0  0  0999 V2000
    3.6464    0.8665   -0.9495 C   0  0  0  0  0  0  0  0  0  0  0  0
    2.8539   -0.4330   -0.7609 C   0  0  0  0  0  0  0  0  0  0  0  0
    2.5647   -1.1054   -2.1081 C   0  0  0  0  0  0  0  0  0  0  0  0
    1.5704   -0.1910    0.0177 C   0  0  0  0  0  0  0  0  0  0  0  0
    0.6163    0.6426   -0.4402 C   0  0  0  0  0  0  0  0  0  0  0  0
   -0.6900    0.7738    0.3150 C   0  0  0  0  0  0  0  0  0  0  0  0
   -1.2042   -0.6744    0.6639 C   0  0  0  0  0  0  0  0  0  0  0  0
   -0.1032   -1.4141    1.5145 C   0  0  0  0  0  0  0  0  0  0  0  0
    1.3432   -0.8860    1.3419 C   0  0  0  0  0  0  0  0  0  0  0  0
   -1.4549   -1.5038   -0.6323 C   0  0  0  0  0  0  0  0  0  0  0  0
   -2.4770   -0.5917    1.5049 C   0  0  0  0  0  0  0  0  0  0  0  0
   -3.1206   -1.6720    1.9663 C   0  0  0  0  0  0  0  0  0  0  0  0
   -1.6165    1.7716   -0.4039 C   0  0  0  0  0  0  0  0  0  0  0  0
   -2.8861    1.5204   -0.7755 C   0  0  0  0  0  0  0  0  0  0  0  0
   -1.1004    3.1712   -0.6426 C   0  0  0  0  0  0  0  0  0  0  0  0
    3.0958    1.5832   -1.5949 H   0  0  0  0  0  0  0  0  0  0  0  0
    4.6269    0.6477   -1.4238 H   0  0  0  0  0  0  0  0  0  0  0  0
    3.8362    1.3426    0.0363 H   0  0  0  0  0  0  0  0  0  0  0  0
    3.5043   -1.1262   -0.1838 H   0  0  0  0  0  0  0  0  0  0  0  0
    3.5180   -1.3512   -2.6229 H   0  0  0  0  0  0  0  0  0  0  0  0
    2.0037   -2.0509   -1.9479 H   0  0  0  0  0  0  0  0  0  0  0  0
    1.9678   -0.4409   -2.7682 H   0  0  0  0  0  0  0  0  0  0  0  0
    0.7424    1.1423   -1.3966 H   0  0  0  0  0  0  0  0  0  0  0  0
   -0.4484    1.2640    1.2858 H   0  0  0  0  0  0  0  0  0  0  0  0
   -0.1121   -2.5043    1.2908 H   0  0  0  0  0  0  0  0  0  0  0  0
   -0.3376   -1.3390    2.6006 H   0  0  0  0  0  0  0  0  0  0  0  0
    2.0575   -1.7255    1.4813 H   0  0  0  0  0  0  0  0  0  0  0  0
    1.5520   -0.1465    2.1457 H   0  0  0  0  0  0  0  0  0  0  0  0
   -1.9015   -2.4923   -0.3985 H   0  0  0  0  0  0  0  0  0  0  0  0
   -2.1211   -0.9974   -1.3524 H   0  0  0  0  0  0  0  0  0  0  0  0
   -0.5015   -1.7048   -1.1639 H   0  0  0  0  0  0  0  0  0  0  0  0
   -2.8689    0.3818    1.7863 H   0  0  0  0  0  0  0  0  0  0  0  0
   -2.7630   -2.6755    1.7614 H   0  0  0  0  0  0  0  0  0  0  0  0
   -4.0112   -1.5523    2.5747 H   0  0  0  0  0  0  0  0  0  0  0  0
   -3.4770    2.2920   -1.2610 H   0  0  0  0  0  0  0  0  0  0  0  0
   -3.3910    0.5842   -0.5971 H   0  0  0  0  0  0  0  0  0  0  0  0
   -0.0830    3.3073   -0.2189 H   0  0  0  0  0  0  0  0  0  0  0  0
   -1.7720    3.9118   -0.1581 H   0  0  0  0  0  0  0  0  0  0  0  0
   -1.0582    3.3753   -1.7335 H   0  0  0  0  0  0  0  0  0  0  0  0
  1  2  1  0
  2  3  1  0
  2  4  1  0
  4  5  2  0
  5  6  1  0
  6  7  1  0
  7  8  1  0
  8  9  1  0
  7 10  1  0
  7 11  1  0
 11 12  2  0
  6 13  1  0
 13 14  2  0
 13 15  1  0
  9  4  1  0
  1 16  1  0
  1 17  1  0
  1 18  1  0
  2 19  1  0
  3 20  1  0
  3 21  1  0
  3 22  1  0
  5 23  1  0
  6 24  1  0
  8 25  1  0
  8 26  1  0
  9 27  1  0
  9 28  1  0
 10 29  1  0
 10 30  1  0
 10 31  1  0
 11 32  1  0
 12 33  1  0
 12 34  1  0
 14 35  1  0
 14 36  1  0
 15 37  1  0
 15 38  1  0
 15 39  1  0
M  END
$$$$
