
     RDKit          3D

 39 40  0  0  0  0  0  0  0  0999 V2000
   -3.3498    1.3332   -1.8686 C   0  0  0  0  0  0  0  0  0  0  0  0
   -3.4009    0.5850   -0.5543 C   0  0  0  0  0  0  0  0  0  0  0  0
   -2.3441   -0.1753   -0.1446 C   0  0  0  0  0  0  0  0  0  0  0  0
   -1.0618   -0.2222   -1.0010 C   0  0  0  0  0  0  0  0  0  0  0  0
   -0.1062   -1.2723   -0.4294 C   0  0  0  0  0  0  0  0  0  0  0  0
    1.2512   -1.4210    0.2498 C   0  0  0  0  0  0  0  0  0  0  0  0
    0.1336   -0.7569    1.0344 C   0  0  0  0  0  0  0  0  0  0  0  0
   -1.0250   -1.3949    1.8060 C   0  0  0  0  0  0  0  0  0  0  0  0
   -2.3345   -0.9290    1.1799 C   0  0  0  0  0  0  0  0  0  0  0  0
   -3.4063   -1.2419    1.7626 O   0  0  0  0  0  0  0  0  0  0  0  0
    0.3635    0.7439    1.3677 C   0  0  0  0  0  0  0  0  0  0  0  0
    2.3451   -0.6416   -0.5000 C   0  0  0  0  0  0  0  0  0  0  0  0
    3.5219   -0.3226    0.4335 C   0  0  0  0  0  0  0  0  0  0  0  0
    4.6697    0.4038   -0.2321 C   0  0  0  0  0  0  0  0  0  0  0  0
    5.6561    0.6664    0.4390 O   0  0  0  0  0  0  0  0  0  0  0  0
    4.6478    0.8221   -1.6768 C   0  0  0  0  0  0  0  0  0  0  0  0
   -4.6435    0.7540    0.2882 C   0  0  0  0  0  0  0  0  0  0  0  0
   -2.4973    2.0442   -1.8720 H   0  0  0  0  0  0  0  0  0  0  0  0
   -3.2429    0.6176   -2.7103 H   0  0  0  0  0  0  0  0  0  0  0  0
   -4.2733    1.9205   -2.0522 H   0  0  0  0  0  0  0  0  0  0  0  0
   -0.5879    0.7774   -1.0862 H   0  0  0  0  0  0  0  0  0  0  0  0
   -1.3184   -0.5503   -2.0300 H   0  0  0  0  0  0  0  0  0  0  0  0
   -0.5535   -2.2905   -0.5182 H   0  0  0  0  0  0  0  0  0  0  0  0
    1.4858   -2.4632    0.5572 H   0  0  0  0  0  0  0  0  0  0  0  0
   -0.9635   -2.5052    1.7843 H   0  0  0  0  0  0  0  0  0  0  0  0
   -0.9871   -1.0750    2.8694 H   0  0  0  0  0  0  0  0  0  0  0  0
    0.9549    0.8111    2.3040 H   0  0  0  0  0  0  0  0  0  0  0  0
   -0.6030    1.2588    1.5495 H   0  0  0  0  0  0  0  0  0  0  0  0
    0.8930    1.3186    0.5870 H   0  0  0  0  0  0  0  0  0  0  0  0
    1.9572    0.2801   -0.9803 H   0  0  0  0  0  0  0  0  0  0  0  0
    2.7084   -1.2987   -1.3189 H   0  0  0  0  0  0  0  0  0  0  0  0
    3.1646    0.3007    1.2795 H   0  0  0  0  0  0  0  0  0  0  0  0
    3.9119   -1.2744    0.8559 H   0  0  0  0  0  0  0  0  0  0  0  0
    4.5281   -0.0674   -2.3292 H   0  0  0  0  0  0  0  0  0  0  0  0
    3.8133    1.5319   -1.8532 H   0  0  0  0  0  0  0  0  0  0  0  0
    5.5984    1.3281   -1.9503 H   0  0  0  0  0  0  0  0  0  0  0  0
   -4.3716    1.1131    1.3033 H   0  0  0  0  0  0  0  0  0  0  0  0
   -5.1921   -0.2086    0.3536 H   0  0  0  0  0  0  0  0  0  0  0  0
   -5.3415    1.5003   -0.1445 H   0  0  0  0  0  0  0  0  0  0  0  0
  1  2  1  0
  2  3  2  3
  3  4  1  0
  4  5  1  0
  5  6  1  0
  6  7  1  0
  7  8  1  0
  8  9  1  0
  9 10  2  0
  7 11  1  0
  6 12  1  0
 12 13  1  0
 13 14  1  0
 14 15  2  0
 14 16  1  0
  2 17  1  0
  9  3  1  0
  7  5  1  0
  1 18  1  0
  1 19  1  0
  1 20  1  0
  4 21  1  0
  4 22  1  0
  5 23  1  0
  6 24  1  0
  8 25  1  0
  8 26  1  0
 11 27  1  0
 11 28  1  0
 11 29  1  0
 12 30  1  0
 12 31  1  0
 13 32  1  0
 13 33  1  0
 16 34  1  0
 16 35  1  0
 16 36  1  0
 17 37  1  0
 17 38  1  0
 17 39  1  0
M  END
$$$$
