
     RDKit          3D

 28 27  0  0  0  0  0  0  0  0999 V2000
   -3.9597    1.3821   -0.1651 C   0  0  0  0  0  0  0  0  0  0  0  0
   -2.6905    0.8085   -0.7885 C   0  0  0  0  0  0  0  0  0  0  0  0
   -1.8375    0.0840    0.2590 C   0  0  0  0  0  0  0  0  0  0  0  0
   -0.5635   -0.4914   -0.3710 C   0  0  0  0  0  0  0  0  0  0  0  0
    0.2979   -1.2025    0.6831 C   0  0  0  0  0  0  0  0  0  0  0  0
    1.5159   -1.9203    0.0730 C   0  0  0  0  0  0  0  0  0  0  0  0
    2.5635   -0.9738   -0.5362 C   0  0  0  0  0  0  0  0  0  0  0  0
    3.1418   -0.0327    0.4895 C   0  0  0  0  0  0  0  0  0  0  0  0
    3.8201   -0.4797    1.4019 O   0  0  0  0  0  0  0  0  0  0  0  0
    2.9069    1.4467    0.4103 C   0  0  0  0  0  0  0  0  0  0  0  0
   -4.5769    0.5683    0.2718 H   0  0  0  0  0  0  0  0  0  0  0  0
   -3.7022    2.1146    0.6294 H   0  0  0  0  0  0  0  0  0  0  0  0
   -4.5560    1.8999   -0.9456 H   0  0  0  0  0  0  0  0  0  0  0  0
   -2.1050    1.6391   -1.2399 H   0  0  0  0  0  0  0  0  0  0  0  0
   -2.9755    0.0991   -1.5959 H   0  0  0  0  0  0  0  0  0  0  0  0
   -2.4316   -0.7418    0.7092 H   0  0  0  0  0  0  0  0  0  0  0  0
   -1.5584    0.7989    1.0645 H   0  0  0  0  0  0  0  0  0  0  0  0
   -0.8423   -1.2132   -1.1700 H   0  0  0  0  0  0  0  0  0  0  0  0
    0.0148    0.3396   -0.8275 H   0  0  0  0  0  0  0  0  0  0  0  0
   -0.3237   -1.9682    1.1970 H   0  0  0  0  0  0  0  0  0  0  0  0
    0.6294   -0.4740    1.4542 H   0  0  0  0  0  0  0  0  0  0  0  0
    1.1695   -2.6266   -0.7126 H   0  0  0  0  0  0  0  0  0  0  0  0
    2.0010   -2.5309    0.8657 H   0  0  0  0  0  0  0  0  0  0  0  0
    3.3916   -1.5838   -0.9571 H   0  0  0  0  0  0  0  0  0  0  0  0
    2.1220   -0.4151   -1.3872 H   0  0  0  0  0  0  0  0  0  0  0  0
    2.2728    1.7104   -0.4617 H   0  0  0  0  0  0  0  0  0  0  0  0
    2.3961    1.7900    1.3342 H   0  0  0  0  0  0  0  0  0  0  0  0
    3.8797    1.9729    0.3154 H   0  0  0  0  0  0  0  0  0  0  0  0
  1  2  1  0
  2  3  1  0
  3  4  1  0
  4  5  1  0
  5  6  1  0
  6  7  1  0
  7  8  1  0
  8  9  2  0
  8 10  1  0
  1 11  1  0
  1 12  1  0
  1 13  1  0
  2 14  1  0
  2 15  1  0
  3 16  1  0
  3 17  1  0
  4 18  1  0
  4 19  1  0
  5 20  1  0
  5 21  1  0
  6 22  1  0
  6 23  1  0
  7 24  1  0
  7 25  1  0
 10 26  1  0
 10 27  1  0
 10 28  1  0
M  END
$$$$
