
     RDKit          3D

 24 23  0  0  0  0  0  0  0  0999 V2000
    3.4773    0.4754   -0.2092 C   0  0  0  0  0  0  0  0  0  0  0  0
    2.3209    0.4691    0.7865 C   0  0  0  0  0  0  0  0  0  0  0  0
    1.0738   -0.1879    0.1836 C   0  0  0  0  0  0  0  0  0  0  0  0
   -0.0921   -0.1746    1.1834 C   0  0  0  0  0  0  0  0  0  0  0  0
   -1.3045   -0.9960    0.7067 C   0  0  0  0  0  0  0  0  0  0  0  0
   -1.9769   -0.4792   -0.5865 C   0  0  0  0  0  0  0  0  0  0  0  0
   -2.5237    0.9480   -0.4434 C   0  0  0  0  0  0  0  0  0  0  0  0
   -3.0100   -1.3524   -0.9689 O   0  0  0  0  0  0  0  0  0  0  0  0
    4.3649    0.9545    0.2551 H   0  0  0  0  0  0  0  0  0  0  0  0
    3.1998    1.0487   -1.1194 H   0  0  0  0  0  0  0  0  0  0  0  0
    3.7442   -0.5638   -0.4970 H   0  0  0  0  0  0  0  0  0  0  0  0
    2.6352   -0.0860    1.6972 H   0  0  0  0  0  0  0  0  0  0  0  0
    2.0893    1.5176    1.0755 H   0  0  0  0  0  0  0  0  0  0  0  0
    0.7853    0.3706   -0.7323 H   0  0  0  0  0  0  0  0  0  0  0  0
    1.3110   -1.2379   -0.0967 H   0  0  0  0  0  0  0  0  0  0  0  0
   -0.3953    0.8713    1.4009 H   0  0  0  0  0  0  0  0  0  0  0  0
    0.2544   -0.6176    2.1430 H   0  0  0  0  0  0  0  0  0  0  0  0
   -0.9820   -2.0480    0.5458 H   0  0  0  0  0  0  0  0  0  0  0  0
   -2.0568   -1.0101    1.5257 H   0  0  0  0  0  0  0  0  0  0  0  0
   -1.2321   -0.4818   -1.4092 H   0  0  0  0  0  0  0  0  0  0  0  0
   -3.1159    1.2141   -1.3446 H   0  0  0  0  0  0  0  0  0  0  0  0
   -3.1790    1.0292    0.4500 H   0  0  0  0  0  0  0  0  0  0  0  0
   -1.6927    1.6784   -0.3571 H   0  0  0  0  0  0  0  0  0  0  0  0
   -3.6952   -1.3415   -0.2496 H   0  0  0  0  0  0  0  0  0  0  0  0
  1  2  1  0
  2  3  1  0
  3  4  1  0
  4  5  1  0
  5  6  1  0
  6  7  1  0
  6  8  1  0
  1  9  1  0
  1 10  1  0
  1 11  1  0
  2 12  1  0
  2 13  1  0
  3 14  1  0
  3 15  1  0
  4 16  1  0
  4 17  1  0
  5 18  1  0
  5 19  1  0
  6 20  1  0
  7 21  1  0
  7 22  1  0
  7 23  1  0
  8 24  1  0
M  END
$$$$
