
     RDKit          3D

 34 33  0  0  0  0  0  0  0  0999 V2000
   -4.6007   -0.9562   -1.7072 C   0  0  0  0  0  0  0  0  0  0  0  0
   -3.6154    0.1332   -2.1306 C   0  0  0  0  0  0  0  0  0  0  0  0
   -2.7577    0.6478   -0.9639 C   0  0  0  0  0  0  0  0  0  0  0  0
   -1.6877   -0.3675   -0.5273 C   0  0  0  0  0  0  0  0  0  0  0  0
   -0.8437    0.1350    0.6549 C   0  0  0  0  0  0  0  0  0  0  0  0
    0.1031    1.2846    0.2657 C   0  0  0  0  0  0  0  0  0  0  0  0
    1.1124    1.6109    1.3871 C   0  0  0  0  0  0  0  0  0  0  0  0
    2.5264    1.0670    1.1201 C   0  0  0  0  0  0  0  0  0  0  0  0
    2.5908   -0.4656    1.1397 C   0  0  0  0  0  0  0  0  0  0  0  0
    4.0156   -0.9402    1.0223 C   0  0  0  0  0  0  0  0  0  0  0  0
    4.7902   -0.7523    1.9483 O   0  0  0  0  0  0  0  0  0  0  0  0
    4.5048   -1.6518   -0.2047 C   0  0  0  0  0  0  0  0  0  0  0  0
   -5.2241   -0.6081   -0.8563 H   0  0  0  0  0  0  0  0  0  0  0  0
   -4.0647   -1.8836   -1.4186 H   0  0  0  0  0  0  0  0  0  0  0  0
   -5.2709   -1.1975   -2.5590 H   0  0  0  0  0  0  0  0  0  0  0  0
   -2.9639   -0.2489   -2.9464 H   0  0  0  0  0  0  0  0  0  0  0  0
   -4.1988    0.9866   -2.5397 H   0  0  0  0  0  0  0  0  0  0  0  0
   -3.4108    0.9087   -0.1024 H   0  0  0  0  0  0  0  0  0  0  0  0
   -2.2582    1.5794   -1.3038 H   0  0  0  0  0  0  0  0  0  0  0  0
   -1.0238   -0.6133   -1.3849 H   0  0  0  0  0  0  0  0  0  0  0  0
   -2.1844   -1.3072   -0.2064 H   0  0  0  0  0  0  0  0  0  0  0  0
   -0.2505   -0.7222    1.0366 H   0  0  0  0  0  0  0  0  0  0  0  0
   -1.5121    0.4646    1.4804 H   0  0  0  0  0  0  0  0  0  0  0  0
   -0.5071    2.1934    0.0753 H   0  0  0  0  0  0  0  0  0  0  0  0
    0.6342    1.0434   -0.6812 H   0  0  0  0  0  0  0  0  0  0  0  0
    1.1956    2.7170    1.4681 H   0  0  0  0  0  0  0  0  0  0  0  0
    0.7488    1.2519    2.3753 H   0  0  0  0  0  0  0  0  0  0  0  0
    3.1999    1.4692    1.9088 H   0  0  0  0  0  0  0  0  0  0  0  0
    2.8943    1.4450    0.1407 H   0  0  0  0  0  0  0  0  0  0  0  0
    1.9890   -0.8715    0.2998 H   0  0  0  0  0  0  0  0  0  0  0  0
    2.1614   -0.8524    2.0892 H   0  0  0  0  0  0  0  0  0  0  0  0
    5.3537   -1.0885   -0.6455 H   0  0  0  0  0  0  0  0  0  0  0  0
    4.8489   -2.6709    0.0697 H   0  0  0  0  0  0  0  0  0  0  0  0
    3.7053   -1.7397   -0.9697 H   0  0  0  0  0  0  0  0  0  0  0  0
  1  2  1  0
  2  3  1  0
  3  4  1  0
  4  5  1  0
  5  6  1  0
  6  7  1  0
  7  8  1  0
  8  9  1  0
  9 10  1  0
 10 11  2  0
 10 12  1  0
  1 13  1  0
  1 14  1  0
  1 15  1  0
  2 16  1  0
  2 17  1  0
  3 18  1  0
  3 19  1  0
  4 20  1  0
  4 21  1  0
  5 22  1  0
  5 23  1  0
  6 24  1  0
  6 25  1  0
  7 26  1  0
  7 27  1  0
  8 28  1  0
  8 29  1  0
  9 30  1  0
  9 31  1  0
 12 32  1  0
 12 33  1  0
 12 34  1  0
M  END
$$$$
